Circuit: * Prerequisites

Fatal Error: Missing Drain node for Modules.order
